* NGSPICE file created from wb_mem_split.ext - technology: sky130A

* Black-box entry subcircuit for sky130_fd_sc_hd__decap_12 abstract view
.subckt sky130_fd_sc_hd__decap_12 VGND VNB VPB VPWR
.ends

* Black-box entry subcircuit for sky130_fd_sc_hd__fill_1 abstract view
.subckt sky130_fd_sc_hd__fill_1 VGND VNB VPB VPWR
.ends

* Black-box entry subcircuit for sky130_fd_sc_hd__decap_4 abstract view
.subckt sky130_fd_sc_hd__decap_4 VGND VNB VPB VPWR
.ends

* Black-box entry subcircuit for sky130_fd_sc_hd__diode_2 abstract view
.subckt sky130_fd_sc_hd__diode_2 DIODE VGND VNB VPB VPWR
.ends

* Black-box entry subcircuit for sky130_fd_sc_hd__decap_6 abstract view
.subckt sky130_fd_sc_hd__decap_6 VGND VNB VPB VPWR
.ends

* Black-box entry subcircuit for sky130_fd_sc_hd__decap_8 abstract view
.subckt sky130_fd_sc_hd__decap_8 VGND VNB VPB VPWR
.ends

* Black-box entry subcircuit for sky130_fd_sc_hd__mux2_2 abstract view
.subckt sky130_fd_sc_hd__mux2_2 A0 A1 S VGND VNB VPB VPWR X
.ends

* Black-box entry subcircuit for sky130_fd_sc_hd__clkbuf_2 abstract view
.subckt sky130_fd_sc_hd__clkbuf_2 A VGND VNB VPB VPWR X
.ends

* Black-box entry subcircuit for sky130_fd_sc_hd__nor2_2 abstract view
.subckt sky130_fd_sc_hd__nor2_2 A B VGND VNB VPB VPWR Y
.ends

* Black-box entry subcircuit for sky130_fd_sc_hd__inv_2 abstract view
.subckt sky130_fd_sc_hd__inv_2 A VGND VNB VPB VPWR Y
.ends

* Black-box entry subcircuit for sky130_fd_sc_hd__tapvpwrvgnd_1 abstract view
.subckt sky130_fd_sc_hd__tapvpwrvgnd_1 VGND VPWR
.ends

* Black-box entry subcircuit for sky130_fd_sc_hd__fill_2 abstract view
.subckt sky130_fd_sc_hd__fill_2 VGND VNB VPB VPWR
.ends

* Black-box entry subcircuit for sky130_fd_sc_hd__mux2_1 abstract view
.subckt sky130_fd_sc_hd__mux2_1 A0 A1 S VGND VNB VPB VPWR X
.ends

* Black-box entry subcircuit for sky130_fd_sc_hd__nor2_1 abstract view
.subckt sky130_fd_sc_hd__nor2_1 A B VGND VNB VPB VPWR Y
.ends

* Black-box entry subcircuit for sky130_fd_sc_hd__nor2_4 abstract view
.subckt sky130_fd_sc_hd__nor2_4 A B VGND VNB VPB VPWR Y
.ends

* Black-box entry subcircuit for sky130_fd_sc_hd__decap_3 abstract view
.subckt sky130_fd_sc_hd__decap_3 VGND VNB VPB VPWR
.ends

* Black-box entry subcircuit for sky130_fd_sc_hd__buf_1 abstract view
.subckt sky130_fd_sc_hd__buf_1 A VGND VNB VPB VPWR X
.ends

* Black-box entry subcircuit for sky130_fd_sc_hd__mux2_4 abstract view
.subckt sky130_fd_sc_hd__mux2_4 A0 A1 S VGND VNB VPB VPWR X
.ends

* Black-box entry subcircuit for sky130_fd_sc_hd__clkbuf_1 abstract view
.subckt sky130_fd_sc_hd__clkbuf_1 A VGND VNB VPB VPWR X
.ends

* Black-box entry subcircuit for sky130_fd_sc_hd__buf_2 abstract view
.subckt sky130_fd_sc_hd__buf_2 A VGND VNB VPB VPWR X
.ends

* Black-box entry subcircuit for sky130_fd_sc_hd__buf_4 abstract view
.subckt sky130_fd_sc_hd__buf_4 A VGND VNB VPB VPWR X
.ends

* Black-box entry subcircuit for sky130_fd_sc_hd__clkbuf_4 abstract view
.subckt sky130_fd_sc_hd__clkbuf_4 A VGND VNB VPB VPWR X
.ends

* Black-box entry subcircuit for sky130_fd_sc_hd__and3_1 abstract view
.subckt sky130_fd_sc_hd__and3_1 A B C VGND VNB VPB VPWR X
.ends

* Black-box entry subcircuit for sky130_fd_sc_hd__nor2_8 abstract view
.subckt sky130_fd_sc_hd__nor2_8 A B VGND VNB VPB VPWR Y
.ends

* Black-box entry subcircuit for sky130_fd_sc_hd__buf_6 abstract view
.subckt sky130_fd_sc_hd__buf_6 A VGND VNB VPB VPWR X
.ends

* Black-box entry subcircuit for sky130_fd_sc_hd__buf_8 abstract view
.subckt sky130_fd_sc_hd__buf_8 A VGND VNB VPB VPWR X
.ends

.subckt wb_mem_split core_a_data_addr_o[0] core_a_data_addr_o[1] core_a_data_addr_o[2]
+ core_a_data_addr_o[3] core_a_data_addr_o[4] core_a_data_addr_o[5] core_a_data_addr_o[6]
+ core_a_data_addr_o[7] core_a_data_addr_o[8] core_a_data_addr_o[9] core_a_data_be_o[0]
+ core_a_data_be_o[1] core_a_data_be_o[2] core_a_data_be_o[3] core_a_data_rdata_i[0]
+ core_a_data_rdata_i[10] core_a_data_rdata_i[11] core_a_data_rdata_i[12] core_a_data_rdata_i[13]
+ core_a_data_rdata_i[14] core_a_data_rdata_i[15] core_a_data_rdata_i[16] core_a_data_rdata_i[17]
+ core_a_data_rdata_i[18] core_a_data_rdata_i[19] core_a_data_rdata_i[1] core_a_data_rdata_i[20]
+ core_a_data_rdata_i[21] core_a_data_rdata_i[22] core_a_data_rdata_i[23] core_a_data_rdata_i[24]
+ core_a_data_rdata_i[25] core_a_data_rdata_i[26] core_a_data_rdata_i[27] core_a_data_rdata_i[28]
+ core_a_data_rdata_i[29] core_a_data_rdata_i[2] core_a_data_rdata_i[30] core_a_data_rdata_i[31]
+ core_a_data_rdata_i[3] core_a_data_rdata_i[4] core_a_data_rdata_i[5] core_a_data_rdata_i[6]
+ core_a_data_rdata_i[7] core_a_data_rdata_i[8] core_a_data_rdata_i[9] core_a_data_req_o
+ core_a_data_rvalid_i core_a_data_wdata_o[0] core_a_data_wdata_o[10] core_a_data_wdata_o[11]
+ core_a_data_wdata_o[12] core_a_data_wdata_o[13] core_a_data_wdata_o[14] core_a_data_wdata_o[15]
+ core_a_data_wdata_o[16] core_a_data_wdata_o[17] core_a_data_wdata_o[18] core_a_data_wdata_o[19]
+ core_a_data_wdata_o[1] core_a_data_wdata_o[20] core_a_data_wdata_o[21] core_a_data_wdata_o[22]
+ core_a_data_wdata_o[23] core_a_data_wdata_o[24] core_a_data_wdata_o[25] core_a_data_wdata_o[26]
+ core_a_data_wdata_o[27] core_a_data_wdata_o[28] core_a_data_wdata_o[29] core_a_data_wdata_o[2]
+ core_a_data_wdata_o[30] core_a_data_wdata_o[31] core_a_data_wdata_o[3] core_a_data_wdata_o[4]
+ core_a_data_wdata_o[5] core_a_data_wdata_o[6] core_a_data_wdata_o[7] core_a_data_wdata_o[8]
+ core_a_data_wdata_o[9] core_a_data_we_o core_b_data_addr_o[0] core_b_data_addr_o[1]
+ core_b_data_addr_o[2] core_b_data_addr_o[3] core_b_data_addr_o[4] core_b_data_addr_o[5]
+ core_b_data_addr_o[6] core_b_data_addr_o[7] core_b_data_addr_o[8] core_b_data_addr_o[9]
+ core_b_data_be_o[0] core_b_data_be_o[1] core_b_data_be_o[2] core_b_data_be_o[3]
+ core_b_data_rdata_i[0] core_b_data_rdata_i[10] core_b_data_rdata_i[11] core_b_data_rdata_i[12]
+ core_b_data_rdata_i[13] core_b_data_rdata_i[14] core_b_data_rdata_i[15] core_b_data_rdata_i[16]
+ core_b_data_rdata_i[17] core_b_data_rdata_i[18] core_b_data_rdata_i[19] core_b_data_rdata_i[1]
+ core_b_data_rdata_i[20] core_b_data_rdata_i[21] core_b_data_rdata_i[22] core_b_data_rdata_i[23]
+ core_b_data_rdata_i[24] core_b_data_rdata_i[25] core_b_data_rdata_i[26] core_b_data_rdata_i[27]
+ core_b_data_rdata_i[28] core_b_data_rdata_i[29] core_b_data_rdata_i[2] core_b_data_rdata_i[30]
+ core_b_data_rdata_i[31] core_b_data_rdata_i[3] core_b_data_rdata_i[4] core_b_data_rdata_i[5]
+ core_b_data_rdata_i[6] core_b_data_rdata_i[7] core_b_data_rdata_i[8] core_b_data_rdata_i[9]
+ core_b_data_req_o core_b_data_rvalid_i core_b_data_wdata_o[0] core_b_data_wdata_o[10]
+ core_b_data_wdata_o[11] core_b_data_wdata_o[12] core_b_data_wdata_o[13] core_b_data_wdata_o[14]
+ core_b_data_wdata_o[15] core_b_data_wdata_o[16] core_b_data_wdata_o[17] core_b_data_wdata_o[18]
+ core_b_data_wdata_o[19] core_b_data_wdata_o[1] core_b_data_wdata_o[20] core_b_data_wdata_o[21]
+ core_b_data_wdata_o[22] core_b_data_wdata_o[23] core_b_data_wdata_o[24] core_b_data_wdata_o[25]
+ core_b_data_wdata_o[26] core_b_data_wdata_o[27] core_b_data_wdata_o[28] core_b_data_wdata_o[29]
+ core_b_data_wdata_o[2] core_b_data_wdata_o[30] core_b_data_wdata_o[31] core_b_data_wdata_o[3]
+ core_b_data_wdata_o[4] core_b_data_wdata_o[5] core_b_data_wdata_o[6] core_b_data_wdata_o[7]
+ core_b_data_wdata_o[8] core_b_data_wdata_o[9] core_b_data_we_o wb_data_addr_i[0]
+ wb_data_addr_i[10] wb_data_addr_i[1] wb_data_addr_i[2] wb_data_addr_i[3] wb_data_addr_i[4]
+ wb_data_addr_i[5] wb_data_addr_i[6] wb_data_addr_i[7] wb_data_addr_i[8] wb_data_addr_i[9]
+ wb_data_be_i[0] wb_data_be_i[1] wb_data_be_i[2] wb_data_be_i[3] wb_data_rdata_o[0]
+ wb_data_rdata_o[10] wb_data_rdata_o[11] wb_data_rdata_o[12] wb_data_rdata_o[13]
+ wb_data_rdata_o[14] wb_data_rdata_o[15] wb_data_rdata_o[16] wb_data_rdata_o[17]
+ wb_data_rdata_o[18] wb_data_rdata_o[19] wb_data_rdata_o[1] wb_data_rdata_o[20] wb_data_rdata_o[21]
+ wb_data_rdata_o[22] wb_data_rdata_o[23] wb_data_rdata_o[24] wb_data_rdata_o[25]
+ wb_data_rdata_o[26] wb_data_rdata_o[27] wb_data_rdata_o[28] wb_data_rdata_o[29]
+ wb_data_rdata_o[2] wb_data_rdata_o[30] wb_data_rdata_o[31] wb_data_rdata_o[3] wb_data_rdata_o[4]
+ wb_data_rdata_o[5] wb_data_rdata_o[6] wb_data_rdata_o[7] wb_data_rdata_o[8] wb_data_rdata_o[9]
+ wb_data_rvalid_o wb_data_wdata_i[0] wb_data_wdata_i[10] wb_data_wdata_i[11] wb_data_wdata_i[12]
+ wb_data_wdata_i[13] wb_data_wdata_i[14] wb_data_wdata_i[15] wb_data_wdata_i[16]
+ wb_data_wdata_i[17] wb_data_wdata_i[18] wb_data_wdata_i[19] wb_data_wdata_i[1] wb_data_wdata_i[20]
+ wb_data_wdata_i[21] wb_data_wdata_i[22] wb_data_wdata_i[23] wb_data_wdata_i[24]
+ wb_data_wdata_i[25] wb_data_wdata_i[26] wb_data_wdata_i[27] wb_data_wdata_i[28]
+ wb_data_wdata_i[29] wb_data_wdata_i[2] wb_data_wdata_i[30] wb_data_wdata_i[31] wb_data_wdata_i[3]
+ wb_data_wdata_i[4] wb_data_wdata_i[5] wb_data_wdata_i[6] wb_data_wdata_i[7] wb_data_wdata_i[8]
+ wb_data_wdata_i[9] wb_data_we_i wbs_cyc_i wbs_stb_i VPWR VGND
XFILLER_39_299 VGND VGND VPWR VPWR sky130_fd_sc_hd__decap_12
XFILLER_22_199 VGND VGND VPWR VPWR sky130_fd_sc_hd__fill_1
XFILLER_22_144 VGND VGND VPWR VPWR sky130_fd_sc_hd__decap_4
XFILLER_22_111 VGND VGND VPWR VPWR sky130_fd_sc_hd__decap_12
XFILLER_10_339 VGND VGND VPWR VPWR sky130_fd_sc_hd__decap_12
XFILLER_7_7 VGND VGND VPWR VPWR sky130_fd_sc_hd__decap_12
XANTENNA__274__A0 _274_/A0 VGND VGND VPWR VPWR sky130_fd_sc_hd__diode_2
XFILLER_45_203 VGND VGND VPWR VPWR sky130_fd_sc_hd__decap_6
XFILLER_41_420 VGND VGND VPWR VPWR sky130_fd_sc_hd__decap_4
XFILLER_26_30 VGND VGND VPWR VPWR sky130_fd_sc_hd__decap_12
XFILLER_42_95 VGND VGND VPWR VPWR sky130_fd_sc_hd__fill_1
XANTENNA_input92_A wb_data_wdata_i[19] VGND VGND VPWR VPWR sky130_fd_sc_hd__diode_2
XFILLER_5_310 VGND VGND VPWR VPWR sky130_fd_sc_hd__decap_12
XFILLER_9_115 VGND VGND VPWR VPWR sky130_fd_sc_hd__decap_12
XANTENNA__113__B _206_/B VGND VGND VPWR VPWR sky130_fd_sc_hd__diode_2
XFILLER_1_571 VGND VGND VPWR VPWR sky130_fd_sc_hd__decap_4
XFILLER_5_343 VGND VGND VPWR VPWR sky130_fd_sc_hd__decap_12
XFILLER_5_398 VGND VGND VPWR VPWR sky130_fd_sc_hd__fill_1
XFILLER_36_258 VGND VGND VPWR VPWR sky130_fd_sc_hd__decap_12
XFILLER_36_225 VGND VGND VPWR VPWR sky130_fd_sc_hd__decap_12
XFILLER_1_593 VGND VGND VPWR VPWR sky130_fd_sc_hd__fill_1
XFILLER_1_582 VGND VGND VPWR VPWR sky130_fd_sc_hd__fill_1
XANTENNA__265__A0 input5/X VGND VGND VPWR VPWR sky130_fd_sc_hd__diode_2
XFILLER_32_486 VGND VGND VPWR VPWR sky130_fd_sc_hd__decap_12
XFILLER_32_453 VGND VGND VPWR VPWR sky130_fd_sc_hd__decap_12
XANTENNA__275__S _284_/S VGND VGND VPWR VPWR sky130_fd_sc_hd__diode_2
XFILLER_8_192 VGND VGND VPWR VPWR sky130_fd_sc_hd__decap_8
XFILLER_12_54 VGND VGND VPWR VPWR sky130_fd_sc_hd__decap_12
XFILLER_2_302 VGND VGND VPWR VPWR sky130_fd_sc_hd__decap_4
XFILLER_2_313 VGND VGND VPWR VPWR sky130_fd_sc_hd__fill_1
XFILLER_2_379 VGND VGND VPWR VPWR sky130_fd_sc_hd__decap_4
XFILLER_12_87 VGND VGND VPWR VPWR sky130_fd_sc_hd__decap_12
XFILLER_46_523 VGND VGND VPWR VPWR sky130_fd_sc_hd__decap_4
XFILLER_46_512 VGND VGND VPWR VPWR sky130_fd_sc_hd__fill_1
XFILLER_18_258 VGND VGND VPWR VPWR sky130_fd_sc_hd__decap_12
XFILLER_18_225 VGND VGND VPWR VPWR sky130_fd_sc_hd__decap_12
XFILLER_46_589 VGND VGND VPWR VPWR sky130_fd_sc_hd__decap_4
XFILLER_26_280 VGND VGND VPWR VPWR sky130_fd_sc_hd__decap_12
XFILLER_14_420 VGND VGND VPWR VPWR sky130_fd_sc_hd__decap_8
XFILLER_14_453 VGND VGND VPWR VPWR sky130_fd_sc_hd__decap_12
XFILLER_14_486 VGND VGND VPWR VPWR sky130_fd_sc_hd__decap_12
X_277_ _277_/A0 _277_/A1 _281_/S VGND VGND VPWR VPWR _277_/X sky130_fd_sc_hd__mux2_2
XFILLER_5_151 VGND VGND VPWR VPWR sky130_fd_sc_hd__decap_12
XFILLER_32_294 VGND VGND VPWR VPWR sky130_fd_sc_hd__decap_12
Xoutput231 _278_/X VGND VGND VPWR VPWR wb_data_rdata_o[26] sky130_fd_sc_hd__clkbuf_2
Xoutput242 _259_/X VGND VGND VPWR VPWR wb_data_rdata_o[7] sky130_fd_sc_hd__clkbuf_2
Xoutput220 _268_/X VGND VGND VPWR VPWR wb_data_rdata_o[16] sky130_fd_sc_hd__clkbuf_2
XFILLER_28_567 VGND VGND VPWR VPWR sky130_fd_sc_hd__decap_8
XFILLER_28_534 VGND VGND VPWR VPWR sky130_fd_sc_hd__decap_8
XFILLER_43_526 VGND VGND VPWR VPWR sky130_fd_sc_hd__decap_12
X_200_ _201_/A _200_/B VGND VGND VPWR VPWR _200_/Y sky130_fd_sc_hd__nor2_2
XFILLER_11_412 VGND VGND VPWR VPWR sky130_fd_sc_hd__decap_12
X_131_ _131_/A VGND VGND VPWR VPWR _217_/B sky130_fd_sc_hd__inv_2
XFILLER_23_53 VGND VGND VPWR VPWR sky130_fd_sc_hd__decap_4
XANTENNA_input55_A core_b_data_rdata_i[29] VGND VGND VPWR VPWR sky130_fd_sc_hd__diode_2
XFILLER_46_386 VGND VGND VPWR VPWR sky130_fd_sc_hd__decap_8
XFILLER_46_342 VGND VGND VPWR VPWR sky130_fd_sc_hd__decap_6
XANTENNA_output211_A _134_/Y VGND VGND VPWR VPWR sky130_fd_sc_hd__diode_2
XANTENNA__119__A _125_/A VGND VGND VPWR VPWR sky130_fd_sc_hd__diode_2
XFILLER_14_294 VGND VGND VPWR VPWR sky130_fd_sc_hd__decap_12
XFILLER_25_526 VGND VGND VPWR VPWR sky130_fd_sc_hd__decap_12
XFILLER_4_419 VGND VGND VPWR VPWR sky130_fd_sc_hd__fill_1
XFILLER_0_614 VGND VGND VPWR VPWR sky130_fd_sc_hd__fill_1
XFILLER_18_42 VGND VGND VPWR VPWR sky130_fd_sc_hd__decap_12
XPHY_598 VGND VPWR sky130_fd_sc_hd__tapvpwrvgnd_1
XPHY_587 VGND VPWR sky130_fd_sc_hd__tapvpwrvgnd_1
XPHY_576 VGND VPWR sky130_fd_sc_hd__tapvpwrvgnd_1
XPHY_565 VGND VPWR sky130_fd_sc_hd__tapvpwrvgnd_1
XFILLER_43_345 VGND VGND VPWR VPWR sky130_fd_sc_hd__decap_4
XPHY_554 VGND VPWR sky130_fd_sc_hd__tapvpwrvgnd_1
XPHY_543 VGND VPWR sky130_fd_sc_hd__tapvpwrvgnd_1
XPHY_532 VGND VPWR sky130_fd_sc_hd__tapvpwrvgnd_1
XPHY_521 VGND VPWR sky130_fd_sc_hd__tapvpwrvgnd_1
XPHY_510 VGND VPWR sky130_fd_sc_hd__tapvpwrvgnd_1
XFILLER_34_30 VGND VGND VPWR VPWR sky130_fd_sc_hd__decap_12
XFILLER_11_220 VGND VGND VPWR VPWR sky130_fd_sc_hd__decap_8
XFILLER_11_253 VGND VGND VPWR VPWR sky130_fd_sc_hd__decap_12
X_114_ _114_/A VGND VGND VPWR VPWR _207_/B sky130_fd_sc_hd__inv_2
XANTENNA_output161_A _216_/Y VGND VGND VPWR VPWR sky130_fd_sc_hd__diode_2
XFILLER_11_286 VGND VGND VPWR VPWR sky130_fd_sc_hd__decap_12
XFILLER_39_607 VGND VGND VPWR VPWR sky130_fd_sc_hd__decap_4
XFILLER_3_474 VGND VGND VPWR VPWR sky130_fd_sc_hd__decap_4
XANTENNA__283__S _283_/S VGND VGND VPWR VPWR sky130_fd_sc_hd__diode_2
XFILLER_37_172 VGND VGND VPWR VPWR sky130_fd_sc_hd__decap_12
XFILLER_29_139 VGND VGND VPWR VPWR sky130_fd_sc_hd__decap_12
XFILLER_29_106 VGND VGND VPWR VPWR sky130_fd_sc_hd__decap_8
XFILLER_25_334 VGND VGND VPWR VPWR sky130_fd_sc_hd__decap_8
XFILLER_40_315 VGND VGND VPWR VPWR sky130_fd_sc_hd__decap_12
XFILLER_25_367 VGND VGND VPWR VPWR sky130_fd_sc_hd__decap_8
XFILLER_21_562 VGND VGND VPWR VPWR sky130_fd_sc_hd__decap_8
XANTENNA__206__B _206_/B VGND VGND VPWR VPWR sky130_fd_sc_hd__diode_2
XFILLER_21_595 VGND VGND VPWR VPWR sky130_fd_sc_hd__decap_12
XFILLER_20_54 VGND VGND VPWR VPWR sky130_fd_sc_hd__decap_12
XFILLER_4_249 VGND VGND VPWR VPWR sky130_fd_sc_hd__decap_8
XFILLER_29_30 VGND VGND VPWR VPWR sky130_fd_sc_hd__decap_12
XFILLER_20_87 VGND VGND VPWR VPWR sky130_fd_sc_hd__decap_8
XANTENNA__222__A _223_/A VGND VGND VPWR VPWR sky130_fd_sc_hd__diode_2
XFILLER_45_73 VGND VGND VPWR VPWR sky130_fd_sc_hd__decap_6
XFILLER_44_621 VGND VGND VPWR VPWR sky130_fd_sc_hd__decap_4
XFILLER_43_153 VGND VGND VPWR VPWR sky130_fd_sc_hd__decap_12
XANTENNA_input18_A core_a_data_rdata_i[25] VGND VGND VPWR VPWR sky130_fd_sc_hd__diode_2
XPHY_395 VGND VPWR sky130_fd_sc_hd__tapvpwrvgnd_1
XPHY_384 VGND VPWR sky130_fd_sc_hd__tapvpwrvgnd_1
XPHY_373 VGND VPWR sky130_fd_sc_hd__tapvpwrvgnd_1
XPHY_362 VGND VPWR sky130_fd_sc_hd__tapvpwrvgnd_1
XPHY_351 VGND VPWR sky130_fd_sc_hd__tapvpwrvgnd_1
XPHY_340 VGND VPWR sky130_fd_sc_hd__tapvpwrvgnd_1
XFILLER_8_522 VGND VGND VPWR VPWR sky130_fd_sc_hd__decap_12
XFILLER_8_555 VGND VGND VPWR VPWR sky130_fd_sc_hd__decap_12
XFILLER_8_577 VGND VGND VPWR VPWR sky130_fd_sc_hd__decap_12
XFILLER_6_78 VGND VGND VPWR VPWR sky130_fd_sc_hd__decap_8
XANTENNA__278__S _283_/S VGND VGND VPWR VPWR sky130_fd_sc_hd__diode_2
XFILLER_19_172 VGND VGND VPWR VPWR sky130_fd_sc_hd__decap_12
XFILLER_22_315 VGND VGND VPWR VPWR sky130_fd_sc_hd__decap_12
XFILLER_45_407 VGND VGND VPWR VPWR sky130_fd_sc_hd__decap_4
XFILLER_41_602 VGND VGND VPWR VPWR sky130_fd_sc_hd__decap_4
XFILLER_26_621 VGND VGND VPWR VPWR sky130_fd_sc_hd__decap_4
XANTENNA__217__A _218_/A VGND VGND VPWR VPWR sky130_fd_sc_hd__diode_2
XFILLER_40_156 VGND VGND VPWR VPWR sky130_fd_sc_hd__decap_12
XFILLER_40_123 VGND VGND VPWR VPWR sky130_fd_sc_hd__decap_12
XFILLER_5_514 VGND VGND VPWR VPWR sky130_fd_sc_hd__decap_12
XFILLER_31_97 VGND VGND VPWR VPWR sky130_fd_sc_hd__decap_12
XFILLER_36_429 VGND VGND VPWR VPWR sky130_fd_sc_hd__decap_12
XFILLER_29_481 VGND VGND VPWR VPWR sky130_fd_sc_hd__decap_12
XFILLER_17_621 VGND VGND VPWR VPWR sky130_fd_sc_hd__decap_4
XFILLER_0_285 VGND VGND VPWR VPWR sky130_fd_sc_hd__decap_4
XFILLER_0_252 VGND VGND VPWR VPWR sky130_fd_sc_hd__decap_8
XFILLER_0_241 VGND VGND VPWR VPWR sky130_fd_sc_hd__decap_6
XFILLER_44_473 VGND VGND VPWR VPWR sky130_fd_sc_hd__decap_12
XFILLER_32_613 VGND VGND VPWR VPWR sky130_fd_sc_hd__decap_4
XPHY_170 VGND VPWR sky130_fd_sc_hd__tapvpwrvgnd_1
XANTENNA__127__A _127_/A VGND VGND VPWR VPWR sky130_fd_sc_hd__diode_2
XPHY_181 VGND VPWR sky130_fd_sc_hd__tapvpwrvgnd_1
XPHY_192 VGND VPWR sky130_fd_sc_hd__tapvpwrvgnd_1
XFILLER_8_363 VGND VGND VPWR VPWR sky130_fd_sc_hd__decap_8
XFILLER_8_396 VGND VGND VPWR VPWR sky130_fd_sc_hd__decap_12
XFILLER_4_591 VGND VGND VPWR VPWR sky130_fd_sc_hd__decap_8
XFILLER_23_613 VGND VGND VPWR VPWR sky130_fd_sc_hd__decap_4
XFILLER_22_123 VGND VGND VPWR VPWR sky130_fd_sc_hd__decap_12
XFILLER_10_307 VGND VGND VPWR VPWR sky130_fd_sc_hd__decap_6
XFILLER_2_528 VGND VGND VPWR VPWR sky130_fd_sc_hd__decap_4
XFILLER_18_429 VGND VGND VPWR VPWR sky130_fd_sc_hd__decap_12
XFILLER_45_259 VGND VGND VPWR VPWR sky130_fd_sc_hd__decap_4
XFILLER_45_237 VGND VGND VPWR VPWR sky130_fd_sc_hd__decap_4
XFILLER_26_484 VGND VGND VPWR VPWR sky130_fd_sc_hd__fill_1
XFILLER_26_42 VGND VGND VPWR VPWR sky130_fd_sc_hd__decap_12
XFILLER_14_613 VGND VGND VPWR VPWR sky130_fd_sc_hd__decap_4
XFILLER_42_30 VGND VGND VPWR VPWR sky130_fd_sc_hd__decap_12
XFILLER_5_322 VGND VGND VPWR VPWR sky130_fd_sc_hd__decap_12
XFILLER_5_355 VGND VGND VPWR VPWR sky130_fd_sc_hd__fill_2
XANTENNA_input85_A wb_data_wdata_i[12] VGND VGND VPWR VPWR sky130_fd_sc_hd__diode_2
XFILLER_9_127 VGND VGND VPWR VPWR sky130_fd_sc_hd__decap_12
XFILLER_3_24 VGND VGND VPWR VPWR sky130_fd_sc_hd__decap_4
XFILLER_36_237 VGND VGND VPWR VPWR sky130_fd_sc_hd__decap_12
XANTENNA__265__A1 _265_/A1 VGND VGND VPWR VPWR sky130_fd_sc_hd__diode_2
XFILLER_44_292 VGND VGND VPWR VPWR sky130_fd_sc_hd__decap_4
XFILLER_44_270 VGND VGND VPWR VPWR sky130_fd_sc_hd__decap_4
XFILLER_32_498 VGND VGND VPWR VPWR sky130_fd_sc_hd__decap_12
XFILLER_32_465 VGND VGND VPWR VPWR sky130_fd_sc_hd__decap_12
XANTENNA__256__A1 _256_/A1 VGND VGND VPWR VPWR sky130_fd_sc_hd__diode_2
XFILLER_27_259 VGND VGND VPWR VPWR sky130_fd_sc_hd__decap_4
XFILLER_12_66 VGND VGND VPWR VPWR sky130_fd_sc_hd__decap_12
XFILLER_2_347 VGND VGND VPWR VPWR sky130_fd_sc_hd__decap_8
XFILLER_5_5 VGND VGND VPWR VPWR sky130_fd_sc_hd__decap_4
XFILLER_12_99 VGND VGND VPWR VPWR sky130_fd_sc_hd__decap_12
XFILLER_46_502 VGND VGND VPWR VPWR sky130_fd_sc_hd__decap_4
XFILLER_18_237 VGND VGND VPWR VPWR sky130_fd_sc_hd__decap_12
X_276_ _276_/A0 _276_/A1 _283_/S VGND VGND VPWR VPWR _276_/X sky130_fd_sc_hd__mux2_1
XFILLER_33_229 VGND VGND VPWR VPWR sky130_fd_sc_hd__decap_4
XFILLER_26_292 VGND VGND VPWR VPWR sky130_fd_sc_hd__decap_6
XFILLER_14_465 VGND VGND VPWR VPWR sky130_fd_sc_hd__decap_12
XFILLER_14_498 VGND VGND VPWR VPWR sky130_fd_sc_hd__decap_12
XFILLER_5_163 VGND VGND VPWR VPWR sky130_fd_sc_hd__decap_8
XFILLER_5_174 VGND VGND VPWR VPWR sky130_fd_sc_hd__decap_12
Xoutput221 _269_/X VGND VGND VPWR VPWR wb_data_rdata_o[17] sky130_fd_sc_hd__clkbuf_2
Xoutput210 _132_/Y VGND VGND VPWR VPWR core_b_data_wdata_o[8] sky130_fd_sc_hd__clkbuf_2
Xoutput232 _279_/X VGND VGND VPWR VPWR wb_data_rdata_o[27] sky130_fd_sc_hd__clkbuf_2
Xoutput243 _260_/X VGND VGND VPWR VPWR wb_data_rdata_o[8] sky130_fd_sc_hd__clkbuf_2
XFILLER_43_505 VGND VGND VPWR VPWR sky130_fd_sc_hd__decap_8
XFILLER_28_579 VGND VGND VPWR VPWR sky130_fd_sc_hd__decap_4
XFILLER_43_538 VGND VGND VPWR VPWR sky130_fd_sc_hd__decap_12
X_130_ _134_/A _216_/B VGND VGND VPWR VPWR _130_/Y sky130_fd_sc_hd__nor2_1
XFILLER_15_229 VGND VGND VPWR VPWR sky130_fd_sc_hd__decap_12
XFILLER_11_424 VGND VGND VPWR VPWR sky130_fd_sc_hd__decap_12
XFILLER_11_457 VGND VGND VPWR VPWR sky130_fd_sc_hd__decap_12
XFILLER_2_100 VGND VGND VPWR VPWR sky130_fd_sc_hd__decap_6
XFILLER_3_601 VGND VGND VPWR VPWR sky130_fd_sc_hd__decap_4
XANTENNA_input48_A core_b_data_rdata_i[22] VGND VGND VPWR VPWR sky130_fd_sc_hd__diode_2
XFILLER_2_199 VGND VGND VPWR VPWR sky130_fd_sc_hd__fill_1
XFILLER_2_166 VGND VGND VPWR VPWR sky130_fd_sc_hd__decap_4
XFILLER_46_376 VGND VGND VPWR VPWR sky130_fd_sc_hd__fill_1
XFILLER_46_310 VGND VGND VPWR VPWR sky130_fd_sc_hd__fill_1
XFILLER_34_516 VGND VGND VPWR VPWR sky130_fd_sc_hd__decap_12
XFILLER_0_25 VGND VGND VPWR VPWR sky130_fd_sc_hd__decap_4
XANTENNA_output204_A _185_/Y VGND VGND VPWR VPWR sky130_fd_sc_hd__diode_2
XFILLER_9_12 VGND VGND VPWR VPWR sky130_fd_sc_hd__decap_12
X_259_ _259_/A0 _259_/A1 _281_/S VGND VGND VPWR VPWR _259_/X sky130_fd_sc_hd__mux2_1
XFILLER_9_56 VGND VGND VPWR VPWR sky130_fd_sc_hd__fill_1
XFILLER_37_376 VGND VGND VPWR VPWR sky130_fd_sc_hd__decap_8
XFILLER_37_343 VGND VGND VPWR VPWR sky130_fd_sc_hd__decap_12
XFILLER_37_310 VGND VGND VPWR VPWR sky130_fd_sc_hd__decap_12
XFILLER_37_387 VGND VGND VPWR VPWR sky130_fd_sc_hd__decap_12
XFILLER_33_571 VGND VGND VPWR VPWR sky130_fd_sc_hd__decap_12
XFILLER_25_538 VGND VGND VPWR VPWR sky130_fd_sc_hd__decap_12
XPHY_500 VGND VPWR sky130_fd_sc_hd__tapvpwrvgnd_1
XANTENNA_input102_A wb_data_wdata_i[28] VGND VGND VPWR VPWR sky130_fd_sc_hd__diode_2
XFILLER_18_87 VGND VGND VPWR VPWR sky130_fd_sc_hd__decap_12
XFILLER_18_54 VGND VGND VPWR VPWR sky130_fd_sc_hd__decap_12
XPHY_599 VGND VPWR sky130_fd_sc_hd__tapvpwrvgnd_1
XPHY_588 VGND VPWR sky130_fd_sc_hd__tapvpwrvgnd_1
XPHY_577 VGND VPWR sky130_fd_sc_hd__tapvpwrvgnd_1
XPHY_566 VGND VPWR sky130_fd_sc_hd__tapvpwrvgnd_1
XPHY_555 VGND VPWR sky130_fd_sc_hd__tapvpwrvgnd_1
XPHY_544 VGND VPWR sky130_fd_sc_hd__tapvpwrvgnd_1
XPHY_533 VGND VPWR sky130_fd_sc_hd__tapvpwrvgnd_1
XPHY_522 VGND VPWR sky130_fd_sc_hd__tapvpwrvgnd_1
XPHY_511 VGND VPWR sky130_fd_sc_hd__tapvpwrvgnd_1
XFILLER_34_42 VGND VGND VPWR VPWR sky130_fd_sc_hd__decap_12
X_113_ _115_/A _206_/B VGND VGND VPWR VPWR _113_/Y sky130_fd_sc_hd__nor2_2
XFILLER_11_265 VGND VGND VPWR VPWR sky130_fd_sc_hd__decap_8
XFILLER_11_298 VGND VGND VPWR VPWR sky130_fd_sc_hd__decap_12
XFILLER_3_486 VGND VGND VPWR VPWR sky130_fd_sc_hd__decap_4
XFILLER_19_343 VGND VGND VPWR VPWR sky130_fd_sc_hd__decap_12
XFILLER_19_310 VGND VGND VPWR VPWR sky130_fd_sc_hd__decap_12
XFILLER_46_184 VGND VGND VPWR VPWR sky130_fd_sc_hd__decap_4
XFILLER_46_162 VGND VGND VPWR VPWR sky130_fd_sc_hd__decap_4
XFILLER_15_571 VGND VGND VPWR VPWR sky130_fd_sc_hd__decap_12
XFILLER_37_184 VGND VGND VPWR VPWR sky130_fd_sc_hd__decap_12
XFILLER_37_151 VGND VGND VPWR VPWR sky130_fd_sc_hd__decap_12
XFILLER_40_327 VGND VGND VPWR VPWR sky130_fd_sc_hd__decap_12
XFILLER_20_66 VGND VGND VPWR VPWR sky130_fd_sc_hd__decap_12
XFILLER_29_42 VGND VGND VPWR VPWR sky130_fd_sc_hd__decap_12
XFILLER_0_489 VGND VGND VPWR VPWR sky130_fd_sc_hd__decap_4
XFILLER_0_467 VGND VGND VPWR VPWR sky130_fd_sc_hd__decap_4
XFILLER_0_445 VGND VGND VPWR VPWR sky130_fd_sc_hd__decap_6
XFILLER_45_96 VGND VGND VPWR VPWR sky130_fd_sc_hd__decap_4
XFILLER_44_600 VGND VGND VPWR VPWR sky130_fd_sc_hd__decap_4
XFILLER_43_198 VGND VGND VPWR VPWR sky130_fd_sc_hd__fill_1
XFILLER_43_165 VGND VGND VPWR VPWR sky130_fd_sc_hd__decap_6
XFILLER_24_390 VGND VGND VPWR VPWR sky130_fd_sc_hd__fill_1
XPHY_352 VGND VPWR sky130_fd_sc_hd__tapvpwrvgnd_1
XPHY_341 VGND VPWR sky130_fd_sc_hd__tapvpwrvgnd_1
XPHY_330 VGND VPWR sky130_fd_sc_hd__tapvpwrvgnd_1
XPHY_396 VGND VPWR sky130_fd_sc_hd__tapvpwrvgnd_1
XPHY_385 VGND VPWR sky130_fd_sc_hd__tapvpwrvgnd_1
XPHY_374 VGND VPWR sky130_fd_sc_hd__tapvpwrvgnd_1
XPHY_363 VGND VPWR sky130_fd_sc_hd__tapvpwrvgnd_1
XFILLER_8_534 VGND VGND VPWR VPWR sky130_fd_sc_hd__decap_8
XFILLER_8_567 VGND VGND VPWR VPWR sky130_fd_sc_hd__decap_6
XFILLER_8_589 VGND VGND VPWR VPWR sky130_fd_sc_hd__decap_8
XFILLER_39_416 VGND VGND VPWR VPWR sky130_fd_sc_hd__decap_12
XFILLER_20_5 VGND VGND VPWR VPWR sky130_fd_sc_hd__decap_4
XFILLER_19_184 VGND VGND VPWR VPWR sky130_fd_sc_hd__decap_12
XFILLER_19_151 VGND VGND VPWR VPWR sky130_fd_sc_hd__decap_12
XFILLER_22_327 VGND VGND VPWR VPWR sky130_fd_sc_hd__decap_12
XFILLER_41_614 VGND VGND VPWR VPWR sky130_fd_sc_hd__decap_4
XFILLER_40_135 VGND VGND VPWR VPWR sky130_fd_sc_hd__decap_8
XFILLER_26_600 VGND VGND VPWR VPWR sky130_fd_sc_hd__decap_12
XFILLER_40_168 VGND VGND VPWR VPWR sky130_fd_sc_hd__decap_12
XFILLER_5_526 VGND VGND VPWR VPWR sky130_fd_sc_hd__decap_12
XFILLER_0_264 VGND VGND VPWR VPWR sky130_fd_sc_hd__decap_4
Xinput110 wb_data_wdata_i[6] VGND VGND VPWR VPWR _127_/A sky130_fd_sc_hd__clkbuf_2
XANTENNA_output117_A _188_/Y VGND VGND VPWR VPWR sky130_fd_sc_hd__diode_2
XFILLER_29_493 VGND VGND VPWR VPWR sky130_fd_sc_hd__decap_12
XANTENNA_input30_A core_a_data_rdata_i[7] VGND VGND VPWR VPWR sky130_fd_sc_hd__diode_2
XFILLER_31_113 VGND VGND VPWR VPWR sky130_fd_sc_hd__fill_1
XPHY_160 VGND VPWR sky130_fd_sc_hd__tapvpwrvgnd_1
XPHY_171 VGND VPWR sky130_fd_sc_hd__tapvpwrvgnd_1
XPHY_182 VGND VPWR sky130_fd_sc_hd__tapvpwrvgnd_1
XPHY_193 VGND VPWR sky130_fd_sc_hd__tapvpwrvgnd_1
XANTENNA__143__A _143_/A VGND VGND VPWR VPWR sky130_fd_sc_hd__diode_2
XFILLER_22_157 VGND VGND VPWR VPWR sky130_fd_sc_hd__decap_12
XFILLER_22_135 VGND VGND VPWR VPWR sky130_fd_sc_hd__decap_8
XFILLER_2_518 VGND VGND VPWR VPWR sky130_fd_sc_hd__decap_8
XFILLER_38_290 VGND VGND VPWR VPWR sky130_fd_sc_hd__decap_12
XFILLER_18_408 VGND VGND VPWR VPWR sky130_fd_sc_hd__decap_12
XFILLER_42_42 VGND VGND VPWR VPWR sky130_fd_sc_hd__decap_12
XFILLER_26_474 VGND VGND VPWR VPWR sky130_fd_sc_hd__decap_4
XFILLER_26_441 VGND VGND VPWR VPWR sky130_fd_sc_hd__decap_12
XFILLER_26_87 VGND VGND VPWR VPWR sky130_fd_sc_hd__decap_12
XFILLER_26_54 VGND VGND VPWR VPWR sky130_fd_sc_hd__decap_12
XFILLER_9_106 VGND VGND VPWR VPWR sky130_fd_sc_hd__decap_8
XFILLER_9_139 VGND VGND VPWR VPWR sky130_fd_sc_hd__decap_12
XANTENNA_input78_A wb_data_be_i[0] VGND VGND VPWR VPWR sky130_fd_sc_hd__diode_2
XFILLER_5_334 VGND VGND VPWR VPWR sky130_fd_sc_hd__decap_8
XFILLER_5_378 VGND VGND VPWR VPWR sky130_fd_sc_hd__decap_12
XFILLER_1_540 VGND VGND VPWR VPWR sky130_fd_sc_hd__decap_8
XFILLER_3_58 VGND VGND VPWR VPWR sky130_fd_sc_hd__decap_12
XFILLER_36_249 VGND VGND VPWR VPWR sky130_fd_sc_hd__decap_8
XFILLER_32_477 VGND VGND VPWR VPWR sky130_fd_sc_hd__decap_8
XFILLER_23_400 VGND VGND VPWR VPWR sky130_fd_sc_hd__decap_12
XFILLER_12_78 VGND VGND VPWR VPWR sky130_fd_sc_hd__decap_8
XFILLER_2_315 VGND VGND VPWR VPWR sky130_fd_sc_hd__decap_4
XFILLER_46_547 VGND VGND VPWR VPWR sky130_fd_sc_hd__decap_4
XFILLER_37_31 VGND VGND VPWR VPWR sky130_fd_sc_hd__fill_1
XFILLER_33_208 VGND VGND VPWR VPWR sky130_fd_sc_hd__decap_12
XFILLER_18_249 VGND VGND VPWR VPWR sky130_fd_sc_hd__decap_8
XFILLER_41_241 VGND VGND VPWR VPWR sky130_fd_sc_hd__fill_1
X_275_ _275_/A0 _275_/A1 _284_/S VGND VGND VPWR VPWR _275_/X sky130_fd_sc_hd__mux2_1
XFILLER_6_621 VGND VGND VPWR VPWR sky130_fd_sc_hd__decap_4
XFILLER_14_477 VGND VGND VPWR VPWR sky130_fd_sc_hd__decap_8
XFILLER_45_7 VGND VGND VPWR VPWR sky130_fd_sc_hd__decap_4
XFILLER_5_186 VGND VGND VPWR VPWR sky130_fd_sc_hd__decap_12
XFILLER_37_514 VGND VGND VPWR VPWR sky130_fd_sc_hd__decap_12
Xoutput200 _178_/Y VGND VGND VPWR VPWR core_b_data_wdata_o[28] sky130_fd_sc_hd__clkbuf_2
XFILLER_9_481 VGND VGND VPWR VPWR sky130_fd_sc_hd__decap_12
Xoutput244 _261_/X VGND VGND VPWR VPWR wb_data_rdata_o[9] sky130_fd_sc_hd__clkbuf_2
Xoutput222 _270_/X VGND VGND VPWR VPWR wb_data_rdata_o[18] sky130_fd_sc_hd__clkbuf_2
Xoutput233 _280_/X VGND VGND VPWR VPWR wb_data_rdata_o[28] sky130_fd_sc_hd__clkbuf_2
Xoutput211 _134_/Y VGND VGND VPWR VPWR core_b_data_wdata_o[9] sky130_fd_sc_hd__clkbuf_2
XFILLER_15_208 VGND VGND VPWR VPWR sky130_fd_sc_hd__decap_12
XFILLER_36_591 VGND VGND VPWR VPWR sky130_fd_sc_hd__decap_8
XFILLER_23_241 VGND VGND VPWR VPWR sky130_fd_sc_hd__decap_12
XFILLER_11_436 VGND VGND VPWR VPWR sky130_fd_sc_hd__decap_12
XFILLER_11_469 VGND VGND VPWR VPWR sky130_fd_sc_hd__decap_12
XFILLER_2_134 VGND VGND VPWR VPWR sky130_fd_sc_hd__decap_8
XFILLER_46_322 VGND VGND VPWR VPWR sky130_fd_sc_hd__decap_8
XFILLER_19_514 VGND VGND VPWR VPWR sky130_fd_sc_hd__decap_12
XFILLER_46_399 VGND VGND VPWR VPWR sky130_fd_sc_hd__decap_6
XFILLER_34_528 VGND VGND VPWR VPWR sky130_fd_sc_hd__decap_12
XFILLER_9_24 VGND VGND VPWR VPWR sky130_fd_sc_hd__decap_12
X_189_ _191_/A _189_/B VGND VGND VPWR VPWR _189_/Y sky130_fd_sc_hd__nor2_4
X_258_ _258_/A0 _258_/A1 _284_/S VGND VGND VPWR VPWR _258_/X sky130_fd_sc_hd__mux2_1
XFILLER_36_3 VGND VGND VPWR VPWR sky130_fd_sc_hd__decap_12
XANTENNA__151__A _151_/A VGND VGND VPWR VPWR sky130_fd_sc_hd__diode_2
XFILLER_37_355 VGND VGND VPWR VPWR sky130_fd_sc_hd__decap_12
XFILLER_37_322 VGND VGND VPWR VPWR sky130_fd_sc_hd__decap_12
XFILLER_33_583 VGND VGND VPWR VPWR sky130_fd_sc_hd__decap_12
XFILLER_33_550 VGND VGND VPWR VPWR sky130_fd_sc_hd__decap_12
XFILLER_18_591 VGND VGND VPWR VPWR sky130_fd_sc_hd__decap_8
XFILLER_0_605 VGND VGND VPWR VPWR sky130_fd_sc_hd__decap_4
XFILLER_43_358 VGND VGND VPWR VPWR sky130_fd_sc_hd__decap_4
XPHY_534 VGND VPWR sky130_fd_sc_hd__tapvpwrvgnd_1
XPHY_523 VGND VPWR sky130_fd_sc_hd__tapvpwrvgnd_1
XPHY_512 VGND VPWR sky130_fd_sc_hd__tapvpwrvgnd_1
XPHY_501 VGND VPWR sky130_fd_sc_hd__tapvpwrvgnd_1
XFILLER_34_54 VGND VGND VPWR VPWR sky130_fd_sc_hd__decap_12
XFILLER_18_99 VGND VGND VPWR VPWR sky130_fd_sc_hd__decap_12
XFILLER_18_66 VGND VGND VPWR VPWR sky130_fd_sc_hd__decap_12
XPHY_589 VGND VPWR sky130_fd_sc_hd__tapvpwrvgnd_1
XPHY_578 VGND VPWR sky130_fd_sc_hd__tapvpwrvgnd_1
XPHY_567 VGND VPWR sky130_fd_sc_hd__tapvpwrvgnd_1